tests/data/state_estimation/pandapower/symmetric/distribution_radial_SE/sym_output.json
{
  "line": [
    {
      "id": 9,
      "loading": 0.010103198063177162,
      "p_from": 66295.3542293076,
      "q_from": 22002.888985411755,
      "i_from": 101.03195782793965,
      "s_from": 69851.27855733012,
      "p_to": -66282.61532068092,
      "q_to": -21998.77438902225,
      "i_to": 101.03198063177162,
      "s_to": 69837.89206704672
    },
    {
      "id": 10,
      "loading": 0.01165828784336989,
      "p_from": 74359.15783206924,
      "q_from": 31105.20979751209,
      "i_from": 116.5828784336989,
      "s_from": 80602.84380865122,
      "p_to": -74343.45957155604,
      "q_to": -31089.10378997258,
      "i_to": 116.5828784336989,
      "s_to": 80582.14663020137
    },
    {
      "id": 11,
      "loading": 0.010103200340598858,
      "p_from": 66282.61532071985,
      "q_from": 21998.7743890114,
      "i_from": 101.03198063182012,
      "s_from": 69837.89206708025,
      "p_to": -66116.64196561051,
      "q_to": -21945.54134247461,
      "i_to": 101.03200340598859,
      "s_to": 69663.59974637395
    },
    {
      "id": 12,
      "loading": 0.011658287843526028,
      "p_from": 74343.45957261378,
      "q_from": 31089.103790240482,
      "i_from": 116.58287843526024,
      "s_from": 80582.14663128057,
      "p_to": -73996.87460023539,
      "q_to": -30972.488140710815,
      "i_to": 116.58287843526028,
      "s_to": 80217.4075386972
    },
    {
      "id": 13,
      "loading": 0.010105453741820541,
      "p_from": 66116.64196555539,
      "q_from": 21945.541342578334,
      "i_from": 101.0320034059601,
      "s_from": 69663.5997463543,
      "p_to": -65549.99999987514,
      "q_to": -21540.00000002074,
      "i_to": 101.0545374182054,
      "s_to": 68998.36302394807
    },
    {
      "id": 14,
      "loading": 0.011661025982211606,
      "p_from": 73996.87461373414,
      "q_from": 30972.48810017623,
      "i_from": 116.58287843061146,
      "s_from": 80217.40753549848,
      "p_to": -69999.99980561729,
      "q_to": -29999.999906740944,
      "i_to": 116.61025982211605,
      "s_to": 76157.73084323664
    }
  ],
  "node": [
    {
      "id": 1,
      "u_pu": 0.9999999999999993,
      "u": 19999.999999999985,
      "u_angle": -1.3489032054663307e-15
    },
    {
      "id": 2,
      "u_pu": 0.9979182662924079,
      "u": 399.1673065169632,
      "u_angle": -0.005473733279993428
    },
    {
      "id": 3,
      "u_pu": 0.9977267973074284,
      "u": 399.0907189229714,
      "u_angle": -0.005472873012312875
    },
    {
      "id": 4,
      "u_pu": 0.9976620210849205,
      "u": 399.06480843396827,
      "u_angle": -0.005582942682680224
    },
    {
      "id": 5,
      "u_pu": 0.9952365762922039,
      "u": 398.0946305168815,
      "u_angle": -0.005448314581411246
    },
    {
      "id": 6,
      "u_pu": 0.9931463019648968,
      "u": 397.25852078595875,
      "u_angle": -0.005257234795376483
    },
    {
      "id": 7,
      "u_pu": 0.9855129834660763,
      "u": 394.20519338643055,
      "u_angle": -0.00911476976111679
    },
    {
      "id": 8,
      "u_pu": 0.9426633314745977,
      "u": 377.0653325898391,
      "u_angle": 0.002672564387330044
    }
  ],
  "sym_load": [
    {
      "id": 18,
      "p": 65550.0,
      "q": 21540.0
    },
    {
      "id": 19,
      "p": 70000.0,
      "q": 30000.0
    }
  ],
  "transformer": [
    {
      "id": 16,
      "loading": 0.14627227223416653,
      "p_from": 54623.111480824125,
      "q_from": 20966.833620764814,
      "i_from": 1.6890067149874852,
      "s_from": 58508.908893666565,
      "p_to": -54623.111480824125,
      "q_to": -20624.50437877208,
      "i_to": 84.45033574937425,
      "s_to": 58387.108925828215
    },
    {
      "id": 17,
      "loading": 0.14627227223416636,
      "p_from": 86031.400582298,
      "q_from": 33022.76295270432,
      "i_from": 2.6601855761052864,
      "s_from": 92151.53150752473,
      "p_to": -86031.400582298,
      "q_to": -32483.594396565757,
      "i_to": 133.0092788052643,
      "s_to": 91959.69655817935
    }
  ]
}